Standard file
 OpenBabel12142210053D

107114  0  0  1  0  0  0  0  0999 V2000
   -3.9635    2.2030   -0.3450 C   0  0  0  0  0  0  0  0  0  0  0  0
   -2.7118    2.5259    0.4783 C   0  0  0  0  0  0  0  0  0  0  0  0
   -2.9523    3.8426    1.2267 C   0  0  0  0  0  0  0  0  0  0  0  0
   -1.4575    2.6581   -0.3585 C   0  0  0  0  0  0  0  0  0  0  0  0
   -1.5357    3.3715   -1.5469 C   0  0  0  0  0  0  0  0  0  0  0  0
   -0.4160    3.6635   -2.3056 C   0  0  0  0  0  0  0  0  0  0  0  0
   -0.5378    4.4360   -3.5966 C   0  0  0  0  0  0  0  0  0  0  0  0
    0.0399    3.6398   -4.7679 C   0  0  0  0  0  0  0  0  0  0  0  0
    0.1489    5.7984   -3.4769 C   0  0  0  0  0  0  0  0  0  0  0  0
    0.8186    3.2754   -1.8134 C   0  0  0  0  0  0  0  0  0  0  0  0
    0.9394    2.5562   -0.6355 C   0  0  0  0  0  0  0  0  0  0  0  0
    2.3184    2.3061   -0.0719 C   0  0  0  0  0  0  0  0  0  0  0  0
    3.3147    1.8144   -1.1221 C   0  0  0  0  0  0  0  0  0  0  0  0
    2.8285    3.6007    0.5699 C   0  0  0  0  0  0  0  0  0  0  0  0
   -0.2107    2.1828    0.0712 C   0  0  0  0  0  0  0  0  0  0  0  0
   -0.0868    1.3966    1.3328 C   0  0  0  0  0  0  0  0  0  0  0  0
    0.0000    0.0000    1.3677 C   0  0  0  0  0  0  0  0  0  0  0  0
    0.1728   -0.8547   -0.2784 P   0  0  2  0  0  0  0  0  0  0  0  0
   -1.4269   -1.8941   -0.4385 C   0  0  1  0  0  0  0  0  0  0  0  0
   -1.8512   -2.8299    0.6894 C   0  0  0  0  0  0  0  0  0  0  0  0
   -3.1842   -3.4964    0.3355 C   0  0  2  0  0  0  0  0  0  0  0  0
   -3.0477   -4.2830   -0.9662 C   0  0  0  0  0  0  0  0  0  0  0  0
   -2.5177   -0.8323   -0.6040 C   0  0  0  0  0  0  0  0  0  0  0  0
   -3.8590   -1.4792   -0.9471 C   0  0  2  0  0  0  0  0  0  0  0  0
   -4.2648   -2.4303    0.1759 C   0  0  0  0  0  0  0  0  0  0  0  0
   -3.7355   -2.2574   -2.2545 C   0  0  0  0  0  0  0  0  0  0  0  0
   -2.6600   -3.3279   -2.0934 C   0  0  1  0  0  0  0  0  0  0  0  0
   -1.3236   -2.6673   -1.7567 C   0  0  0  0  0  0  0  0  0  0  0  0
    1.6767   -2.0632   -0.1251 C   0  0  2  0  0  0  0  0  0  0  0  0
    2.2158   -2.0888   -1.5650 C   0  0  0  0  0  0  0  0  0  0  0  0
    1.4710   -3.5074    0.3285 C   0  0  0  0  0  0  0  0  0  0  0  0
    2.7946   -4.2765    0.2592 C   0  0  1  0  0  0  0  0  0  0  0  0
    3.3106   -4.2949   -1.1775 C   0  0  0  0  0  0  0  0  0  0  0  0
    3.5333   -2.8577   -1.6411 C   0  0  2  0  0  0  0  0  0  0  0  0
    4.5690   -2.1864   -0.7426 C   0  0  0  0  0  0  0  0  0  0  0  0
    3.8288   -3.6141    1.1653 C   0  0  0  0  0  0  0  0  0  0  0  0
    4.0527   -2.1796    0.6941 C   0  0  2  0  0  0  0  0  0  0  0  0
    2.7336   -1.4103    0.7674 C   0  0  0  0  0  0  0  0  0  0  0  0
    0.0697   -0.6387    2.6197 C   0  0  0  0  0  0  0  0  0  0  0  0
    0.1620   -2.0006    2.6084 O   0  0  0  0  0  0  0  0  0  0  0  0
    0.1905   -2.6906    3.8298 C   0  0  0  0  0  0  0  0  0  0  0  0
    0.0563    0.1025    3.7878 C   0  0  0  0  0  0  0  0  0  0  0  0
    0.0227    1.4868    3.7454 C   0  0  0  0  0  0  0  0  0  0  0  0
   -0.0341    2.1372    2.5282 C   0  0  0  0  0  0  0  0  0  0  0  0
   -0.0146    3.5012    2.3904 O   0  0  0  0  0  0  0  0  0  0  0  0
    0.1111    4.2880    3.5473 C   0  0  0  0  0  0  0  0  0  0  0  0
   -3.7497    1.4801   -1.1247 H   0  0  0  0  0  0  0  0  0  0  0  0
   -4.3601    3.1014   -0.8127 H   0  0  0  0  0  0  0  0  0  0  0  0
   -4.7393    1.7985    0.3021 H   0  0  0  0  0  0  0  0  0  0  0  0
   -2.5555    1.7357    1.2193 H   0  0  0  0  0  0  0  0  0  0  0  0
   -3.8224    3.7532    1.8747 H   0  0  0  0  0  0  0  0  0  0  0  0
   -3.1287    4.6488    0.5177 H   0  0  0  0  0  0  0  0  0  0  0  0
   -2.0889    4.1060    1.8261 H   0  0  0  0  0  0  0  0  0  0  0  0
   -2.4976    3.7259   -1.8859 H   0  0  0  0  0  0  0  0  0  0  0  0
   -1.6024    4.6079   -3.7930 H   0  0  0  0  0  0  0  0  0  0  0  0
    1.1062    3.4753   -4.6346 H   0  0  0  0  0  0  0  0  0  0  0  0
   -0.1101    4.1779   -5.7017 H   0  0  0  0  0  0  0  0  0  0  0  0
   -0.4480    2.6705   -4.8429 H   0  0  0  0  0  0  0  0  0  0  0  0
    0.0000    6.3796   -4.3848 H   0  0  0  0  0  0  0  0  0  0  0  0
   -0.2602    6.3553   -2.6366 H   0  0  0  0  0  0  0  0  0  0  0  0
    1.2178    5.6779   -3.3187 H   0  0  0  0  0  0  0  0  0  0  0  0
    1.7109    3.5542   -2.3510 H   0  0  0  0  0  0  0  0  0  0  0  0
    2.2345    1.5517    0.7153 H   0  0  0  0  0  0  0  0  0  0  0  0
    3.5970    2.6137   -1.8029 H   0  0  0  0  0  0  0  0  0  0  0  0
    2.8822    1.0043   -1.7041 H   0  0  0  0  0  0  0  0  0  0  0  0
    4.2225    1.4565   -0.6390 H   0  0  0  0  0  0  0  0  0  0  0  0
    2.9396    4.3790   -0.1822 H   0  0  0  0  0  0  0  0  0  0  0  0
    2.1233    3.9506    1.3181 H   0  0  0  0  0  0  0  0  0  0  0  0
    3.7944    3.4347    1.0437 H   0  0  0  0  0  0  0  0  0  0  0  0
   -1.9778   -2.2589    1.6094 H   0  0  0  0  0  0  0  0  0  0  0  0
   -1.1023   -3.5981    0.8668 H   0  0  0  0  0  0  0  0  0  0  0  0
   -3.4635   -4.1810    1.1461 H   0  0  0  0  0  0  0  0  0  0  0  0
   -3.9929   -4.7778   -1.2039 H   0  0  0  0  0  0  0  0  0  0  0  0
   -2.2844   -5.0575   -0.8551 H   0  0  0  0  0  0  0  0  0  0  0  0
   -2.6112   -0.2679    0.3249 H   0  0  0  0  0  0  0  0  0  0  0  0
   -2.2213   -0.1347   -1.3927 H   0  0  0  0  0  0  0  0  0  0  0  0
   -4.6229   -0.7010   -1.0574 H   0  0  0  0  0  0  0  0  0  0  0  0
   -5.2242   -2.8992   -0.0573 H   0  0  0  0  0  0  0  0  0  0  0  0
   -4.3818   -1.8747    1.1098 H   0  0  0  0  0  0  0  0  0  0  0  0
   -3.4657   -1.5792   -3.0675 H   0  0  0  0  0  0  0  0  0  0  0  0
   -4.6923   -2.7213   -2.5070 H   0  0  0  0  0  0  0  0  0  0  0  0
   -2.5584   -3.8892   -3.0303 H   0  0  0  0  0  0  0  0  0  0  0  0
   -1.0389   -1.9772   -2.5567 H   0  0  0  0  0  0  0  0  0  0  0  0
   -0.5582   -3.4413   -1.6934 H   0  0  0  0  0  0  0  0  0  0  0  0
    1.4844   -2.5531   -2.2296 H   0  0  0  0  0  0  0  0  0  0  0  0
    2.3690   -1.0652   -1.9151 H   0  0  0  0  0  0  0  0  0  0  0  0
    0.7492   -4.0134   -0.3129 H   0  0  0  0  0  0  0  0  0  0  0  0
    1.1018   -3.5296    1.3496 H   0  0  0  0  0  0  0  0  0  0  0  0
    2.6207   -5.3064    0.5963 H   0  0  0  0  0  0  0  0  0  0  0  0
    2.5858   -4.7892   -1.8292 H   0  0  0  0  0  0  0  0  0  0  0  0
    4.2465   -4.8567   -1.2323 H   0  0  0  0  0  0  0  0  0  0  0  0
    3.8920   -2.8572   -2.6775 H   0  0  0  0  0  0  0  0  0  0  0  0
    4.7454   -1.1628   -1.0802 H   0  0  0  0  0  0  0  0  0  0  0  0
    5.5178   -2.7264   -0.7966 H   0  0  0  0  0  0  0  0  0  0  0  0
    4.7680   -4.1724    1.1328 H   0  0  0  0  0  0  0  0  0  0  0  0
    3.4735   -3.6154    2.1989 H   0  0  0  0  0  0  0  0  0  0  0  0
    4.7887   -1.6906    1.3445 H   0  0  0  0  0  0  0  0  0  0  0  0
    2.3912   -1.3873    1.8020 H   0  0  0  0  0  0  0  0  0  0  0  0
    2.8970   -0.3831    0.4426 H   0  0  0  0  0  0  0  0  0  0  0  0
   -0.7084   -2.4991    4.4253 H   0  0  0  0  0  0  0  0  0  0  0  0
    0.2254   -3.7499    3.5757 H   0  0  0  0  0  0  0  0  0  0  0  0
    1.0775   -2.4354    4.4208 H   0  0  0  0  0  0  0  0  0  0  0  0
    0.0963   -0.3785    4.7520 H   0  0  0  0  0  0  0  0  0  0  0  0
    0.0468    2.0323    4.6751 H   0  0  0  0  0  0  0  0  0  0  0  0
   -0.7444    4.1629    4.2204 H   0  0  0  0  0  0  0  0  0  0  0  0
    1.0353    4.0630    4.0905 H   0  0  0  0  0  0  0  0  0  0  0  0
    0.1424    5.3199    3.1988 H   0  0  0  0  0  0  0  0  0  0  0  0
  1 49  1  0  0  0  0
  1  2  1  0  0  0  0
  2 50  1  0  0  0  0
  2  3  1  0  0  0  0
  3 53  1  0  0  0  0
  3 51  1  0  0  0  0
  4 15  1  0  0  0  0
  4  2  1  0  0  0  0
  5  4  2  0  0  0  0
  6 10  2  0  0  0  0
  6  5  1  0  0  0  0
  7  9  1  0  0  0  0
  7  6  1  0  0  0  0
  8 56  1  0  0  0  0
  8  7  1  0  0  0  0
  9 61  1  0  0  0  0
  9 60  1  0  0  0  0
 10 11  1  0  0  0  0
 11 12  1  0  0  0  0
 11 15  2  0  0  0  0
 12 14  1  0  0  0  0
 12 63  1  0  0  0  0
 13 66  1  0  0  0  0
 13 12  1  0  0  0  0
 14 69  1  0  0  0  0
 14 68  1  0  0  0  0
 15 16  1  0  0  0  0
 16 17  2  0  0  0  0
 16 44  1  0  0  0  0
 17 39  1  0  0  0  0
 18 17  1  1  0  0  0
 19 18  1  1  0  0  0
 19 20  1  0  0  0  0
 20 71  1  0  0  0  0
 20 70  1  0  0  0  0
 21 20  1  0  0  0  0
 21 72  1  1  0  0  0
 22 74  1  0  0  0  0
 22 21  1  0  0  0  0
 23 19  1  0  0  0  0
 23 75  1  0  0  0  0
 24 77  1  6  0  0  0
 24 23  1  0  0  0  0
 24 25  1  0  0  0  0
 25 21  1  0  0  0  0
 25 79  1  0  0  0  0
 26 27  1  0  0  0  0
 26 24  1  0  0  0  0
 27 82  1  6  0  0  0
 27 28  1  0  0  0  0
 27 22  1  0  0  0  0
 28 84  1  0  0  0  0
 28 19  1  0  0  0  0
 29 18  1  1  0  0  0
 29 31  1  0  0  0  0
 29 38  1  0  0  0  0
 30 29  1  0  0  0  0
 31 88  1  0  0  0  0
 32 31  1  0  0  0  0
 32 89  1  1  0  0  0
 32 36  1  0  0  0  0
 33 32  1  0  0  0  0
 34 92  1  6  0  0  0
 34 30  1  0  0  0  0
 34 33  1  0  0  0  0
 34 35  1  0  0  0  0
 35 37  1  0  0  0  0
 36 96  1  0  0  0  0
 37 38  1  0  0  0  0
 37 36  1  0  0  0  0
 37 97  1  1  0  0  0
 38 98  1  0  0  0  0
 39 42  2  0  0  0  0
 40 39  1  0  0  0  0
 40 41  1  0  0  0  0
 41102  1  0  0  0  0
 41100  1  0  0  0  0
 42103  1  0  0  0  0
 43 42  1  0  0  0  0
 43104  1  0  0  0  0
 44 43  2  0  0  0  0
 45 44  1  0  0  0  0
 45 46  1  0  0  0  0
 46106  1  0  0  0  0
 46105  1  0  0  0  0
 47  1  1  0  0  0  0
 48  1  1  0  0  0  0
 52  3  1  0  0  0  0
 54  5  1  0  0  0  0
 55  7  1  0  0  0  0
 57  8  1  0  0  0  0
 58  8  1  0  0  0  0
 59  9  1  0  0  0  0
 62 10  1  0  0  0  0
 64 13  1  0  0  0  0
 65 13  1  0  0  0  0
 67 14  1  0  0  0  0
 73 22  1  0  0  0  0
 76 23  1  0  0  0  0
 78 25  1  0  0  0  0
 80 26  1  0  0  0  0
 81 26  1  0  0  0  0
 83 28  1  0  0  0  0
 85 30  1  0  0  0  0
 86 30  1  0  0  0  0
 87 31  1  0  0  0  0
 90 33  1  0  0  0  0
 91 33  1  0  0  0  0
 93 35  1  0  0  0  0
 94 35  1  0  0  0  0
 95 36  1  0  0  0  0
 99 38  1  0  0  0  0
101 41  1  0  0  0  0
107 46  1  0  0  0  0
M  END
$$$$
